power-flow-agent/results/ieee14/2026-09-23/gpt-5.6-sol/plan_act_nogate__matched/traces/16_case14-multistep-022-s0.transcript.txt
==============================================================================
TRANSCRIPT  plan_act_nogate  |  openrouter:openai/gpt-5.6-sol  |  case14  |  case14-multistep-022-s0  run 0
==============================================================================
date: 2026-09-23   seed: 0   difficulty: multistep   tool variant: load_split

[system]   (hash 7da5e2a37ec4, from methods/plan_act_nogate/method.json prompt_files)
You are a power system power-flow analysis assistant. You help the user complete power system analysis tasks from natural-language requests.

## What you can do
You complete tasks by calling tool functions:
1. Load an IEEE standard test system (14, 30, 57, 118, 300 buses)
2. Run AC power flow
3. Modify the load at a bus and re-solve
4. Disconnect or reconnect a line and re-solve
5. Query the network status
6. Run an N-1 contingency analysis (disconnect branches one at a time and rank the worst cases)
7. Generate remedial-action suggestions (what-if load shedding or voltage adjustment) to reduce violation risk

## Key rules
- Never fabricate any numerical result. Every voltage, power, loss, or loading value must come from a tool return value.
- If a tool reports an error or a non-converged power flow, say so explicitly and do not report numbers for that state.
- If the request is ambiguous, state the interpretation you are using.
- Bus and line identifiers in the request are MATPOWER 1-based ids; pass them to the tools as given, unless the request itself states a different indexing convention for that identifier (e.g. "(0-based)"), in which case convert it to the MATPOWER 1-based id before calling any tool.
- After a network modification, re-solve before reporting any value.
- Always reply in English.

## Reply format
After each analysis, reply in this structure:
1. One-sentence summary
2. Key numbers (total load, total generation, total losses, voltage range) taken from the tool outputs
3. Violations, if any
4. Suggested next step

[user]   (complete message, stored at run time)
Load case14, disconnect the line between bus 9 and bus 10, set the active load at bus 3 to 118.6 MW, set the active load at bus 4 to 53.6 MW, and finally run an N-1 contingency analysis ranked by max violations and report the 8 worst outages.

[tools available to the model]   (function-calling schema, --tool-variant load_split; enum values and defaults as sent)
  load_case(case_name: string* in {case14, case30, case57, case118, case300})  Load IEEE test case.
  run_powerflow()  Run power flow on current case.
  disconnect_line(from_bus: integer*, to_bus: integer*)  Disconnect line/branch between two buses and recompute.
  reconnect_line(from_bus: integer*, to_bus: integer*)  Reconnect line/branch between two buses and recompute.
  get_most_loaded_branch()  Get most loaded branch.
  run_n1_contingency(top_k: integer (default 5), criteria: string in {max_violations, max_overload, min_voltage} (default max_violations), max_candidates: integer (default 0))  Run N-1 contingency analysis.
  recommend_remedial_actions(max_actions: integer (default 5), allow_load_shed: boolean (default True), allow_voltage_control: boolean (default True), include_best_comparison: boolean (default True))  Recommend remedial actions.
  apply_remedial_action(action_index: integer*, confirmed: boolean (default False))  Apply one remedial action by index.
  get_status()  Get current network status.
  generate_plot(plot_type: string* in {voltage_heatmap, flow_diagram, violation_overview, comparison})  Generate one plot.
  set_active_load(bus_id: integer*, p_mw: number*)  Set a bus's active load (MW) and recompute. Use this when the request states only an active-power value. This tool has no reactive-power argument: the bus's present reactive load is always left unchanged. If the request also states a reactive-power value, use set_load instead.
  set_load(bus_id: integer*, p_mw: number*, q_mvar: number*)  Set a bus's active and reactive load (MW, Mvar) and recompute. Use this only when the request states both values. If the request states only an active-power value, use set_active_load instead -- do not invent a reactive-power value here to fill this in.

[planner system prompt]   (hash 76ea681e520a; as assembled today from methods/plan_act; the planning call sends this plus the request)
You are the planner of a power-system analysis agent. You cannot call tools yourself. Given the user's request, output ONLY a JSON object of the form
{"plan": [{"tool": "<tool_name>", "args": {...}}, ...]}
listing, in execution order, every tool call needed to answer the request. Use only the tools below with exactly these argument names (* = required); where an argument lists allowed values, use one of them verbatim. Bus and line identifiers in the request are MATPOWER 1-based ids; pass them to the tools as given, unless the request itself states a different indexing convention for that identifier (e.g. "(0-based)"), in which case convert it to the MATPOWER 1-based id. Do not include explanations, markdown, or any text outside the JSON.

Available tools:
- load_case(case_name: string in {case14, case30, case57, case118, case300}*): Load IEEE test case.
- run_powerflow((none)): Run power flow on current case.
- disconnect_line(from_bus: integer*, to_bus: integer*): Disconnect line/branch between two buses and recompute.
- reconnect_line(from_bus: integer*, to_bus: integer*): Reconnect line/branch between two buses and recompute.
- get_most_loaded_branch((none)): Get most loaded branch.
- run_n1_contingency(top_k: integer, criteria: string in {max_violations, max_overload, min_voltage}, max_candidates: integer): Run N-1 contingency analysis.
- recommend_remedial_actions(max_actions: integer, allow_load_shed: boolean, allow_voltage_control: boolean, include_best_comparison: boolean): Recommend remedial actions.
- apply_remedial_action(action_index: integer*, confirmed: boolean): Apply one remedial action by index.
- get_status((none)): Get current network status.
- generate_plot(plot_type: string in {voltage_heatmap, flow_diagram, violation_overview, comparison}*): Generate one plot.
- set_active_load(bus_id: integer*, p_mw: number*): Set a bus's active load (MW) and recompute. Use this when the request states only an active-power value. This tool has no reactive-power argument: the bus's present reactive load is always left unchanged. If the request also states a reactive-power value, use set_load instead.
- set_load(bus_id: integer*, p_mw: number*, q_mvar: number*): Set a bus's active and reactive load (MW, Mvar) and recompute. Use this only when the request states both values. If the request states only an active-power value, use set_active_load instead -- do not invent a reactive-power value here to fill this in.

[planner output]
[
 {
  "tool": "load_case",
  "args": {
   "case_name": "case14"
  }
 },
 {
  "tool": "disconnect_line",
  "args": {
   "from_bus": 9,
   "to_bus": 10
  }
 },
 {
  "tool": "set_active_load",
  "args": {
   "bus_id": 3,
   "p_mw": 118.6
  }
 },
 {
  "tool": "set_active_load",
  "args": {
   "bus_id": 4,
   "p_mw": 53.6
  }
 },
 {
  "tool": "run_n1_contingency",
  "args": {
   "top_k": 8,
   "criteria": "max_violations",
   "max_candidates": 100
  }
 }
]

--- round 1 ---
[assistant]   (647 in / 192 out tokens, 4.8 s)
{"plan":[{"tool":"load_case","args":{"case_name":"case14"}},{"tool":"disconnect_line","args":{"from_bus":9,"to_bus":10}},{"tool":"set_active_load","args":{"bus_id":3,"p_mw":118.6}},{"tool":"set_active_load","args":{"bus_id":4,"p_mw":53.6}},{"tool":"run_n1_contingency","args":{"top_k":8,"criteria":"max_violations","max_candidates":100}}]}

--- round 2 ---
[tool load_case]   (gate: not applied)
{"case_name": "case14", "n_buses": 14, "n_generators": 5, "n_lines": 20, "n_loads": 11, "total_load_mw": 264.0857422973543, "total_gen_capacity_mw": 772.4000000000001}
[tool disconnect_line]   (gate: pass)
{"case_name": "case14", "converged": true, "bus_voltages": [{"bus_id": 1, "vm_pu": 1.06, "va_deg": 0.0, "is_violation": true, "violation_type": "overvoltage"}, {"bus_id": 2, "vm_pu": 1.0450000000000002, "va_deg": -5.032452347367612, "is_violation": false, "violation_type": null}, {"bus_id": 3, "vm_pu": 1.0099999999999998, "va_deg": -13.02185843467162, "is_violation": false, "violation_type": null}, {"bus_id": 4, "vm_pu": 1.019151532178103, "va_deg": -10.485283519343257, "is_violation": false, "violation_type": null}, {"bus_id": 5, "vm_pu": 1.020150533634477, "va_deg": -8.93620587449609, "is_violation": false, "violation_type": null}, {"bus_id": 6, "vm_pu": 1.07, "va_deg": -14.730758697910517, "is_violation": true, "violation_type": "overvoltage"}, {"bus_id": 7, "vm_pu": 1.066233111439331, "va_deg": -13.195077473264705, "is_violation": true, "violation_type": "overvoltage"}, {"bus_id": 8, "vm_pu": 1.0899999999999996, "va_deg": -13.195077473264703, "is_violation": true, "violation_type": "overvoltage"}, {"bus_id": 9, "vm_pu": 1.06502596787326, "va_deg": -14.589497237091193, "is_violation": true, "violation_type": "overvoltage"}, {"bus_id": 10, "vm_pu": 1.0245143757216992, "va_deg": -16.337851208317847, "is_violation": false, "violation_type": null}, {"bus_id": 11, "vm_pu": 1.0429113384770894, "va_deg": -15.65707667650154, "is_violation": false, "violation_type": null}, {"bus_id": 12, "vm_pu": 1.0557440860581482, "va_deg": -15.516243775224384, "is_violation": true, "violation_type": "overvoltage"}, {"bus_id": 13, "vm_pu": 1.05226239540387, "va_deg": -15.531794926924917, "is_violation": true, "violation_type": "overvoltage"}, {"bus_id": 14, "vm_pu": 1.0409967651142373, "va_deg": -16.021439105765015, "is_violation": false, "violation_type": null}], "line_flows": [{"line_id": 0, "from_bus": 1, "to_bus": 2, "p_from_mw": 158.3907103066857, "q_from_mvar": -20.75594077174437, "loading_percent": 1.5222496516392634, "is_violation": false}, {"line_id": 1, "from_bus": 1, "to_bus": 5, "p_from_mw": 76.81612209949628, "q_from_mvar": 3.4511199679654223, "loading_percent": 0.7329232166320478, "is_violation": false}, {"line_id": 2, "from_bus": 2, "to_bus": 3, "p_from_mw": 75.46258997916114, "q_from_mvar": 3.346483066744652, "loading_percent": 0.7304514317805022, "is_violation": false}, {"line_id": 3, "from_bus": 2, "to_bus": 4, "p_from_mw": 57.14127627401607, "q_from_mvar": -2.6355443301670842, "loading_percent": 0.5529169589327871, "is_violation": false}, {"line_id": 4, "from_bus": 2, "to_bus": 5, "p_from_mw": 42.53465567666423, "q_from_mvar": 0.5364062567029624, "loading_percent": 0.4119963151228389, "is_violation": false}, {"line_id": 5, "from_bus": 3, "to_bus": 4, "p_from_mw": -24.726727924705745, "q_from_mvar": 4.220497691865253, "loading_percent": 0.2531196658447628, "is_violation": false}, {"line_id": 6, "from_bus": 4, "to_bus": 5, "p_from_mw": -61.08547827751476, "q_from_mvar": 17.850263738971364, "loading_percent": 0.6307498824204177, "is_violation": false}, {"line_id": 7, "from_bus": 6, "to_bus": 11, "p_from_mw": 13.081070103192582, "q_from_mvar": 8.399348456431989, "loading_percent": 0.14675283943225717, "is_violation": false}, {"line_id": 8, "from_bus": 6, "to_bus": 12, "p_from_mw": 7.262236313601346, "q_from_mvar": 2.515135153818503, "loading_percent": 0.0725520584592956, "is_violation": false}, {"line_id": 9, "from_bus": 6, "to_bus": 13, "p_from_mw": 15.521772491866187, "q_from_mvar": 6.771796385798451, "loading_percent": 0.15986649841631412, "is_violation": false}, {"line_id": 10, "from_bus": 9, "to_bus": 10, "p_from_mw": 0.0, "q_from_mvar": 0.0, "loading_percent": 0.0, "is_violation": false}, {"line_id": 11, "from_bus": 9, "to_bus": 14, "p_from_mw": 12.08573631487209, "q_from_mvar": 3.911448233793574, "loading_percent": 0.12047821898858578, "is_violation": false}, {"line_id": 12, "from_bus": 10, "to_bus": 11, "p_from_mw": -9.120475049161548, "q_from_mvar": -5.87763947551671, "loading_percent": 0.10697684553299398, "is_violation": false}, {"line_id": 13, "from_bus": 12, "to_bus": 13, "p_from_mw": 0.9828220059970145, "q_from_mvar": 0.7527340713434074, "loading_percent": 0.011844402171297362, "is_violation": false}, {"line_id": 14, "from_bus": 13, "to_bus": 14, "p_from_mw": 3.5194427762455285, "q_from_mvar": 1.6891601848734883, "loading_percent": 0.037473954747896866, "is_violation": false}, {"line_id": 100000, "from_bus": 4, "to_bus": 7, "p_from_mw": 25.119339858988226, "q_from_mvar": -11.443129703824974, "loading_percent": 0.2735788813790675, "is_violation": false}, {"line_id": 100001, "from_bus": 4, "to_bus": 9, "p_from_mw": 14.414370495207123, "q_from_mvar": -1.9929176014458785, "loading_percent": 0.1442226407578109, "is_violation": false}, {"line_id": 100002, "from_bus": 5, "to_bus": 6, "p_from_mw": 46.9195487415077, "q_from_mvar": 13.051197426259414, "loading_percent": 0.48221147949402765, "is_violation": false}, {"line_id": 100003, "from_bus": 7, "to_bus": 8, "p_from_mw": -1.3507663770178483e-14, "q_from_mvar": -14.386059346734866, "loading_percent": 0.13628701755372946, "is_violation": false}, {"line_id": 100004, "from_bus": 7, "to_bus": 9, "p_from_mw": 25.119339857950607, "q_from_mvar": 1.4756637996609703, "loading_percent": 0.23837953604991113, "is_violation": false}], "total_generation_mw": 278.1392360199369, "total_load_mw": 264.0857422973543, "total_loss_mw": 14.053493729319568, "voltage_violations": [{"bus_id": 1, "vm_pu": 1.06, "va_deg": 0.0, "is_violation": true, "violation_type": "overvoltage"}, {"bus_id": 6, "vm_pu": 1.07, "va_deg": -14.730758697910517, "is_violation": true, "violation_type": "overvoltage"}, {"bus_id": 7, "vm_pu": 1.066233111439331, "va_deg": -13.195077473264705, "is_violation": true, "violation_type": "overvoltage"}, {"bus_id": 8, "vm_pu": 1.0899999999999996, "va_deg": -13.195077473264703, "is_violation": true, "violation_type": "overvoltage"}, {"bus_id": 9, "vm_pu": 1.06502596787326, "va_deg": -14.589497237091193, "is_violation": true, "violation_type": "overvoltage"}, {"bus_id": 12, "vm_pu": 1.0557440860581482, "va_deg": -15.516243775224384, "is_violation": true, "violation_type": "overvoltage"}, {"bus_id": 13, "vm_pu": 1.05226239540387, "va_deg": -15.531794926924917, "is_violation": true, "violation_type": "overvoltage"}], "thermal_violations": [], "summary_text": "", "solver_backend": "pandapower", "llm_prompt": null, "llm_response": null}
[tool set_active_load]   (gate: pass)
{"case_name": "case14", "converged": true, "bus_voltages": [{"bus_id": 1, "vm_pu": 1.06, "va_deg": 0.0, "is_violation": true, "violation_type": "overvoltage"}, {"bus_id": 2, "vm_pu": 1.0449999999999997, "va_deg": -5.627497640283712, "is_violation": false, "violation_type": null}, {"bus_id": 3, "vm_pu": 1.01, "va_deg": -14.990506895743575, "is_violation": false, "violation_type": null}, {"bus_id": 4, "vm_pu": 1.0187273005988806, "va_deg": -11.392842428638268, "is_violation": false, "violation_type": null}, {"bus_id": 5, "vm_pu": 1.019624357664198, "va_deg": -9.670832886044602, "is_violation": false, "violation_type": null}, {"bus_id": 6, "vm_pu": 1.07, "va_deg": -15.50154188468173, "is_violation": true, "violation_type": "overvoltage"}, {"bus_id": 7, "vm_pu": 1.0659666225958035, "va_deg": -14.08622801917493, "is_violation": true, "violation_type": "overvoltage"}, {"bus_id": 8, "vm_pu": 1.0900000000000003, "va_deg": -14.086228019174923, "is_violation": true, "violation_type": "overvoltage"}, {"bus_id": 9, "vm_pu": 1.0646694402146752, "va_deg": -15.472095853628511, "is_violation": true, "violation_type": "overvoltage"}, {"bus_id": 10, "vm_pu": 1.0245143757216995, "va_deg": -17.10863439508906, "is_violation": false, "violation_type": null}, {"bus_id": 11, "vm_pu": 1.0429113384770892, "va_deg": -16.42785986327275, "is_violation": false, "violation_type": null}, {"bus_id": 12, "vm_pu": 1.0557368345435607, "va_deg": -16.295091299890938, "is_violation": true, "violation_type": "overvoltage"}, {"bus_id": 13, "vm_pu": 1.052190545936516, "va_deg": -16.318498459729966, "is_violation": true, "violation_type": "overvoltage"}, {"bus_id": 14, "vm_pu": 1.04075917828696, "va_deg": -16.863037310569123, "is_violation": false, "violation_type": null}], "line_flows": [{"line_id": 0, "from_bus": 1, "to_bus": 2, "p_from_mw": 176.4076116996395, "q_from_mvar": -24.851013971212282, "loading_percent": 1.6976312850928896, "is_violation": false}, {"line_id": 1, "from_bus": 1, "to_bus": 5, "p_from_mw": 82.8572497055319, "q_from_mvar": 3.239154837225586, "loading_percent": 0.79017095477001, "is_violation": false}, {"line_id": 2, "from_bus": 2, "to_bus": 3, "p_from_mw": 87.85673736412075, "q_from_mvar": 2.33264382209538, "loading_percent": 0.8495258652101813, "is_violation": false}, {"line_id": 3, "from_bus": 2, "to_bus": 4, "p_from_mw": 60.24614735763246, "q_from_mvar": -3.086647851093456, "loading_percent": 0.5831053705632145, "is_violation": false}, {"line_id": 4, "from_bus": 2, "to_bus": 5, "p_from_mw": 43.98410352106158, "q_from_mvar": 0.48061609005086503, "loading_percent": 0.4258431952703463, "is_violation": false}, {"line_id": 5, "from_bus": 3, "to_bus": 4, "p_from_mw": -34.07428000539687, "q_from_mvar": 8.729289211089029, "loading_percent": 0.35486376276577913, "is_violation": false}, {"line_id": 6, "from_bus": 4, "to_bus": 5, "p_from_mw": -67.65897815390926, "q_from_mvar": 20.393523152031552, "loading_percent": 0.7006726668542389, "is_violation": false}, {"line_id": 7, "from_bus": 6, "to_bus": 11, "p_from_mw": 13.08107010319264, "q_from_mvar": 8.39934845643219, "loading_percent": 0.14675283943225867, "is_violation": false}, {"line_id": 8, "from_bus": 6, "to_bus": 12, "p_from_mw": 7.3142124372122765, "q_from_mvar": 2.494051294135815, "loading_percent": 0.07295140126806367, "is_violation": false}, {"line_id": 9, "from_bus": 6, "to_bus": 13, "p_from_mw": 15.737200547927156, "q_from_mvar": 6.724803722663743, "loading_percent": 0.16155771948576106, "is_violation": false}, {"line_id": 10, "from_bus": 9, "to_bus": 10, "p_from_mw": 0.0, "q_from_mvar": 0.0, "loading_percent": 0.0, "is_violation": false}, {"line_id": 11, "from_bus": 9, "to_bus": 14, "p_from_mw": 11.818843462501526, "q_from_mvar": 3.979619604331837, "loading_percent": 0.11831683340088328, "is_violation": false}, {"line_id": 12, "from_bus": 10, "to_bus": 11, "p_from_mw": -9.120475049161442, "q_from_mvar": -5.877639475516295, "loading_percent": 0.10697684553299083, "is_violation": false}, {"line_id": 13, "from_bus": 12, "to_bus": 13, "p_from_mw": 1.0340981638489435, "q_from_mvar": 0.7301933876353103, "loading_percent": 0.01211194135857953, "is_violation": false}, {"line_id": 14, "from_bus": 13, "to_bus": 14, "p_from_mw": 3.782483862997774, "q_from_mvar": 1.6125607308181498, "loading_percent": 0.03947394886324834, "is_violation": false}, {"line_id": 100000, "from_bus": 4, "to_bus": 7, "p_from_mw": 24.95071894055792, "q_from_mvar": -11.529008340252988, "loading_percent": 0.272528273868063, "is_violation": false}, {"line_id": 100001, "from_bus": 4, "to_bus": 9, "p_from_mw": 14.316098561233359, "q_from_mvar": -2.013879708028823, "loading_percent": 0.14334635099080456, "is_violation": false}, {"line_id": 100002, "from_bus": 5, "to_bus": 6, "p_from_mw": 47.186952921052765, "q_from_mvar": 12.829072866053034, "loading_percent": 0.4844310555857964, "is_violation": false}, {"line_id": 100003, "from_bus": 7, "to_bus": 8, "p_from_mw": -6.126454275338001e-14, "q_from_mvar": -14.543728720477983, "loading_percent": 0.1378151506790689, "is_violation": false}, {"line_id": 100004, "from_bus": 7, "to_bus": 9, "p_from_mw": 24.95071893951462, "q_from_mvar": 1.5587021932879745, "loading_percent": 0.2368918199903337, "is_violation": false}], "total_generation_mw": 302.19726501892626, "total_load_mw": 284.96098801925234, "total_loss_mw": 17.236277007051086, "voltage_violations": [{"bus_id": 1, "vm_pu": 1.06, "va_deg": 0.0, "is_violation": true, "violation_type": "overvoltage"}, {"bus_id": 6, "vm_pu": 1.07, "va_deg": -15.50154188468173, "is_violation": true, "violation_type": "overvoltage"}, {"bus_id": 7, "vm_pu": 1.0659666225958035, "va_deg": -14.08622801917493, "is_violation": true, "violation_type": "overvoltage"}, {"bus_id": 8, "vm_pu": 1.0900000000000003, "va_deg": -14.086228019174923, "is_violation": true, "violation_type": "overvoltage"}, {"bus_id": 9, "vm_pu": 1.0646694402146752, "va_deg": -15.472095853628511, "is_violation": true, "violation_type": "overvoltage"}, {"bus_id": 12, "vm_pu": 1.0557368345435607, "va_deg": -16.295091299890938, "is_violation": true, "violation_type": "overvoltage"}, {"bus_id": 13, "vm_pu": 1.052190545936516, "va_deg": -16.318498459729966, "is_violation": true, "violation_type": "overvoltage"}], "thermal_violations": [], "summary_text": "", "solver_backend": "pandapower", "llm_prompt": null, "llm_response": null, "resolved_bus_id": 3, "assumption": "reactive load at this bus is unchanged from its present value"}
[tool set_active_load]   (gate: pass)
{"case_name": "case14", "converged": true, "bus_voltages": [{"bus_id": 1, "vm_pu": 1.06, "va_deg": 0.0, "is_violation": true, "violation_type": "overvoltage"}, {"bus_id": 2, "vm_pu": 1.045, "va_deg": -5.672176280633835, "is_violation": false, "violation_type": null}, {"bus_id": 3, "vm_pu": 1.0100000000000002, "va_deg": -15.068756283093405, "is_violation": false, "violation_type": null}, {"bus_id": 4, "vm_pu": 1.0184163379125653, "va_deg": -11.494579979849211, "is_violation": false, "violation_type": null}, {"bus_id": 5, "vm_pu": 1.0193948370396848, "va_deg": -9.749912253992356, "is_violation": false, "violation_type": null}, {"bus_id": 6, "vm_pu": 1.07, "va_deg": -15.58713004867783, "is_violation": true, "violation_type": "overvoltage"}, {"bus_id": 7, "vm_pu": 1.0658022501287634, "va_deg": -14.186410866728286, "is_violation": true, "violation_type": "overvoltage"}, {"bus_id": 8, "vm_pu": 1.0900000000000007, "va_deg": -14.186410866728282, "is_violation": true, "violation_type": "overvoltage"}, {"bus_id": 9, "vm_pu": 1.0644818310388313, "va_deg": -15.571300383941939, "is_violation": true, "violation_type": "overvoltage"}, {"bus_id": 10, "vm_pu": 1.0245143757216992, "va_deg": -17.194222559085166, "is_violation": false, "violation_type": null}, {"bus_id": 11, "vm_pu": 1.0429113384770894, "va_deg": -16.513448027268858, "is_violation": false, "violation_type": null}, {"bus_id": 12, "vm_pu": 1.055725299670836, "va_deg": -16.38177523399449, "is_violation": true, "violation_type": "overvoltage"}, {"bus_id": 13, "vm_pu": 1.0521601423243325, "va_deg": -16.406018053881475, "is_violation": true, "violation_type": "overvoltage"}, {"bus_id": 14, "vm_pu": 1.0406376524823497, "va_deg": -16.957419685785535, "is_violation": false, "violation_type": null}], "line_flows": [{"line_id": 0, "from_bus": 1, "to_bus": 2, "p_from_mw": 177.762102077588, "q_from_mvar": -25.150934682462594, "loading_percent": 1.7108113614017695, "is_violation": false}, {"line_id": 1, "from_bus": 1, "to_bus": 5, "p_from_mw": 83.5129009326645, "q_from_mvar": 3.3006389753045866, "loading_percent": 0.7964370139188033, "is_violation": false}, {"line_id": 2, "from_bus": 2, "to_bus": 3, "p_from_mw": 88.15993797734978, "q_from_mvar": 2.311586677088074, "loading_percent": 0.852450225756862, "is_violation": false}, {"line_id": 3, "from_bus": 2, "to_bus": 4, "p_from_mw": 60.84142807499116, "q_from_mvar": -3.038788306659163, "loading_percent": 0.5888286552147958, "is_violation": false}, {"line_id": 4, "from_bus": 2, "to_bus": 5, "p_from_mw": 44.35509018722827, "q_from_mvar": 0.522751473279566, "loading_percent": 0.4294408851797219, "is_violation": false}, {"line_id": 5, "from_bus": 3, "to_bus": 4, "p_from_mw": -33.7939584593398, "q_from_mvar": 8.787312018879764, "loading_percent": 0.3523437650197138, "is_violation": false}, {"line_id": 6, "from_bus": 4, "to_bus": 5, "p_from_mw": -68.55699630865918, "q_from_mvar": 20.510816126251267, "loading_percent": 0.709751730395017, "is_violation": false}, {"line_id": 7, "from_bus": 6, "to_bus": 11, "p_from_mw": 13.08107010319271, "q_from_mvar": 8.399348456432119, "loading_percent": 0.1467528394322588, "is_violation": false}, {"line_id": 8, "from_bus": 6, "to_bus": 12, "p_from_mw": 7.322947705776397, "q_from_mvar": 2.494795605587824, "loading_percent": 0.0730317215934301, "is_violation": false}, {"line_id": 9, "from_bus": 6, "to_bus": 13, "p_from_mw": 15.770323865690806, "q_from_mvar": 6.733369954790488, "loading_percent": 0.16187704135537648, "is_violation": false}, {"line_id": 10, "from_bus": 9, "to_bus": 10, "p_from_mw": 0.0, "q_from_mvar": 0.0, "loading_percent": 0.0, "is_violation": false}, {"line_id": 11, "from_bus": 9, "to_bus": 14, "p_from_mw": 11.777233832429575, "q_from_mvar": 3.970634050107561, "loading_percent": 0.1179362897552532, "is_violation": false}, {"line_id": 12, "from_bus": 10, "to_bus": 11, "p_from_mw": -9.12047504916154, "q_from_mvar": -5.8776394755165695, "loading_percent": 0.10697684553299314, "is_violation": false}, {"line_id": 13, "from_bus": 12, "to_bus": 13, "p_from_mw": 1.042692183304444, "q_from_mvar": 0.7306437202849746, "loading_percent": 0.012181806902058877, "is_violation": false}, {"line_id": 14, "from_bus": 13, "to_bus": 14, "p_from_mw": 3.8234948495117895, "q_from_mvar": 1.620225393277781, "loading_percent": 0.03986621723370677, "is_violation": false}, {"line_id": 100000, "from_bus": 4, "to_bus": 7, "p_from_mw": 24.924871493797, "q_from_mvar": -11.602734807324607, "loading_percent": 0.27268658316600697, "is_violation": false}, {"line_id": 100001, "from_bus": 4, "to_bus": 9, "p_from_mw": 14.30033637789936, "q_from_mvar": -2.0391768459802813, "loading_percent": 0.14327051593914567, "is_violation": false}, {"line_id": 100002, "from_bus": 5, "to_bus": 6, "p_from_mw": 47.22881150731251, "q_from_mvar": 12.724666996115067, "loading_percent": 0.48467021664492843, "is_violation": false}, {"line_id": 100003, "from_bus": 7, "to_bus": 8, "p_from_mw": -4.710147443227223e-14, "q_from_mvar": -14.640940255928392, "loading_percent": 0.13875771551012508, "is_violation": false}, {"line_id": 100004, "from_bus": 7, "to_bus": 9, "p_from_mw": 24.92487149274741, "q_from_mvar": 1.580495193823236, "loading_percent": 0.23669684633470606, "is_violation": false}], "total_generation_mw": 304.2074066240074, "total_load_mw": 286.7497029407315, "total_loss_mw": 17.457703691005776, "voltage_violations": [{"bus_id": 1, "vm_pu": 1.06, "va_deg": 0.0, "is_violation": true, "violation_type": "overvoltage"}, {"bus_id": 6, "vm_pu": 1.07, "va_deg": -15.58713004867783, "is_violation": true, "violation_type": "overvoltage"}, {"bus_id": 7, "vm_pu": 1.0658022501287634, "va_deg": -14.186410866728286, "is_violation": true, "violation_type": "overvoltage"}, {"bus_id": 8, "vm_pu": 1.0900000000000007, "va_deg": -14.186410866728282, "is_violation": true, "violation_type": "overvoltage"}, {"bus_id": 9, "vm_pu": 1.0644818310388313, "va_deg": -15.571300383941939, "is_violation": true, "violation_type": "overvoltage"}, {"bus_id": 12, "vm_pu": 1.055725299670836, "va_deg": -16.38177523399449, "is_violation": true, "violation_type": "overvoltage"}, {"bus_id": 13, "vm_pu": 1.0521601423243325, "va_deg": -16.406018053881475, "is_violation": true, "violation_type": "overvoltage"}], "thermal_violations": [], "summary_text": "", "solver_backend": "pandapower", "llm_prompt": null, "llm_response": null, "resolved_bus_id": 4, "assumption": "reactive load at this bus is unchanged from its present value"}
[tool run_n1_contingency]   (gate: not applied)
{"plot_type": "n1_ranking", "figure_json": "<plotly figure, 16 KB, omitted; see the .json trace>", "n1_report": {"case_name": "case14", "base_converged": true, "top_k": 8, "criteria": "max_violations", "results": [{"branch_id": 12, "branch_type": "line", "from_bus": 10, "to_bus": 11, "converged": true, "n_voltage_violations": 8, "n_thermal_violations": 0, "delta_voltage_violations": 1, "delta_thermal_violations": 0, "worst_vm_pu": 1.0099999999999996, "worst_loading_percent": 1.647234779444787, "score": 80001.64723477945, "notes": ""}, {"branch_id": 1, "branch_type": "line", "from_bus": 1, "to_bus": 5, "converged": true, "n_voltage_violations": 7, "n_thermal_violations": 0, "delta_voltage_violations": 0, "delta_thermal_violations": 0, "worst_vm_pu": 1.00607489893419, "worst_loading_percent": 2.6117132112223307, "score": 70002.61171321123, "notes": ""}, {"branch_id": 5, "branch_type": "line", "from_bus": 3, "to_bus": 4, "converged": true, "n_voltage_violations": 7, "n_thermal_violations": 0, "delta_voltage_violations": 0, "delta_thermal_violations": 0, "worst_vm_pu": 1.0100000000000002, "worst_loading_percent": 1.7943393598769022, "score": 70001.79433935988, "notes": ""}, {"branch_id": 14, "branch_type": "line", "from_bus": 13, "to_bus": 14, "converged": true, "n_voltage_violations": 7, "n_thermal_violations": 0, "delta_voltage_violations": 0, "delta_thermal_violations": 0, "worst_vm_pu": 1.0100000000000002, "worst_loading_percent": 1.7142404152714577, "score": 70001.71424041527, "notes": ""}, {"branch_id": 13, "branch_type": "line", "from_bus": 12, "to_bus": 13, "converged": true, "n_voltage_violations": 7, "n_thermal_violations": 0, "delta_voltage_violations": 0, "delta_thermal_violations": 0, "worst_vm_pu": 1.01, "worst_loading_percent": 1.7109334056102474, "score": 70001.71093340561, "notes": ""}, {"branch_id": 100000, "branch_type": "trafo", "from_bus": 4, "to_bus": 7, "converged": true, "n_voltage_violations": 7, "n_thermal_violations": 0, "delta_voltage_violations": 0, "delta_thermal_violations": 0, "worst_vm_pu": 1.01, "worst_loading_percent": 1.7097742126225557, "score": 70001.70977421262, "notes": ""}, {"branch_id": 100001, "branch_type": "trafo", "from_bus": 4, "to_bus": 9, "converged": true, "n_voltage_violations": 7, "n_thermal_violations": 0, "delta_voltage_violations": 0, "delta_thermal_violations": 0, "worst_vm_pu": 1.0100000000000002, "worst_loading_percent": 1.7094426139591494, "score": 70001.70944261395, "notes": ""}, {"branch_id": 2, "branch_type": "line", "from_bus": 2, "to_bus": 3, "converged": true, "n_voltage_violations": 7, "n_thermal_violations": 0, "delta_voltage_violations": 0, "delta_thermal_violations": 0, "worst_vm_pu": 1.0077819220211308, "worst_loading_percent": 1.6360615721199099, "score": 70001.63606157212, "notes": ""}], "summary_text": "N-1 completed over 19 branches. Worst outage: 10-11 (line), V violations=8 (delta=1), thermal violations=0 (delta=0)."}}

--- round 3 ---
[assistant final]   (17029 in / 681 out tokens, 7.5 s)
1. **Summary:** IEEE 14-bus was modified as requested—line 9–10 disconnected, bus 3 load set to 118.6 MW and bus 4 load to 53.6 MW—and the base case plus all 19 N-1 contingencies converged.

2. **Key numbers**
   - Total load: **286.750 MW**
   - Total generation: **304.207 MW**
   - Total active-power losses: **17.458 MW**
   - Base-case voltage range: **1.010–1.090 p.u.**

3. **Violations**
   - Base case: **7 overvoltage violations**, at buses **1, 6, 7, 8, 9, 12, and 13**
   - Base case thermal violations: **0**
   - Eight worst outages, ranked by maximum violations:

| Rank | Outaged branch | Type | Voltage violations | Thermal violations | Worst Vm (p.u.) | Worst loading |
|---:|---|---|---:|---:|---:|---:|
| 1 | 10–11 | Line | 8 (+1) | 0 | 1.010000 | 1.6472% |
| 2 | 1–5 | Line | 7 (+0) | 0 | 1.006075 | 2.6117% |
| 3 | 3–4 | Line | 7 (+0) | 0 | 1.010000 | 1.7943% |
| 4 | 13–14 | Line | 7 (+0) | 0 | 1.010000 | 1.7142% |
| 5 | 12–13 | Line | 7 (+0) | 0 | 1.010000 | 1.7109% |
| 6 | 4–7 | Transformer | 7 (+0) | 0 | 1.010000 | 1.7098% |
| 7 | 4–9 | Transformer | 7 (+0) | 0 | 1.010000 | 1.7094% |
| 8 | 2–3 | Line | 7 (+0) | 0 | 1.007782 | 1.6361% |

4. **Suggested next step:** Evaluate voltage-control remedial actions, prioritizing the **10–11 outage**, since it increases the number of voltage violations from 7 to 8.
